@<TRIPOS>MOLECULE
ZINC00897143
    8     7     0     0     0
SMALL
USER_CHARGES
prop-2-enal
@<TRIPOS>ATOM
      1 C1          1.1340    1.7588    0.0007 C.2       1 <0>        -0.0971
      2 C2         -0.0126    1.0758    0.0080 C.2       1 <0>        -0.2544
      3 C3         -1.2890    1.7898    0.0179 C.2       1 <0>         0.3632
      4 O1         -2.3314    1.1690    0.0195 O.2       1 <0>        -0.4628
      5 H1          1.1194    2.8387    0.0066 H         1 <0>         0.1110
      6 H2          2.0765    1.2316   -0.0112 H         1 <0>         0.1131
      7 H3          0.0021   -0.0041    0.0020 H         1 <0>         0.1280
      8 H4         -1.3037    2.8697    0.0238 H         1 <0>         0.0989
@<TRIPOS>BOND
     1    1    2 2
     2    1    5 1
     3    1    6 1
     4    2    3 1
     5    2    7 1
     6    3    4 2
     7    3    8 1
