@<TRIPOS>MOLECULE
ZINC08437750
    6     5     0     0     0
SMALL
USER_CHARGES

@<TRIPOS>ATOM
      1 C1         -0.0143    1.2037    0.0087 C.2       1 <0>         0.2923
      2 O1          0.0021   -0.0041    0.0020 O.2       1 <0>        -0.4108
      3 C2          1.2627    1.9643    0.0006 C.2       1 <0>         0.2923
      4 O2          1.2463    3.1721    0.0072 O.2       1 <0>        -0.4108
      5 H1         -0.9568    1.7309    0.0160 H         1 <0>         0.1185
      6 H2          2.2052    1.4371   -0.0113 H         1 <0>         0.1185
@<TRIPOS>BOND
     1    1    2 2
     2    1    3 1
     3    1    5 1
     4    3    4 2
     5    3    6 1
