@<TRIPOS>MOLECULE
ZINC25783052
    9     8     0     0     0
SMALL
USER_CHARGES

@<TRIPOS>ATOM
      1 H1          0.0021   -0.0041    0.0020 H         1 <0>         0.0420
      2 C1         -0.0127    1.0858    0.0080 C.3       1 <0>         0.0284
      3 H2          1.0099    1.4631    0.0003 H         1 <0>         0.0420
      4 H3         -0.5399    1.4469   -0.8751 H         1 <0>         0.0866
      5 O1         -0.6816    1.5467    1.1837 O.3       1 <0>        -0.3979
      6 C2         -0.0679    1.1266    2.4039 C.3       1 <0>         0.0284
      7 H4          0.9536    1.5047    2.4459 H         1 <0>         0.0420
      8 H5         -0.6349    1.5170    3.2490 H         1 <0>         0.0865
      9 H6         -0.0543    0.0375    2.4477 H         1 <0>         0.0420
@<TRIPOS>BOND
     1    1    2 1
     2    2    3 1
     3    2    4 1
     4    2    5 1
     5    5    6 1
     6    6    7 1
     7    6    8 1
     8    6    9 1
