@<TRIPOS>MOLECULE
ZINC71775431
   10     9     0     0     0
SMALL
USER_CHARGES

@<TRIPOS>ATOM
      1 H1          0.0021   -0.0041    0.0020 H         1 <0>         0.0990
      2 C1         -0.0126    1.0758    0.0080 C.2       1 <0>        -0.1768
      3 C2          1.1289    1.7558    0.0007 C.2       1 <0>        -0.1372
      4 H2          1.1143    2.8356    0.0066 H         1 <0>         0.1129
      5 C3          2.4128    1.0376   -0.0154 C.2       1 <0>        -0.1372
      6 C4          3.5543    1.7175   -0.0227 C.2       1 <0>        -0.1768
      7 H3          3.5397    2.7974   -0.0167 H         1 <0>         0.0990
      8 H4          4.4968    1.1903   -0.0345 H         1 <0>         0.1021
      9 H5          2.4275   -0.0423   -0.0213 H         1 <0>         0.1129
     10 H6         -0.9551    1.6030    0.0153 H         1 <0>         0.1021
@<TRIPOS>BOND
     1    1    2 1
     2    2    3 2
     3    2   10 1
     4    3    4 1
     5    3    5 1
     6    5    6 2
     7    5    9 1
     8    6    7 1
     9    6    8 1
